
     RDKit          3D

  8  7  0  0  0  0  0  0  0  0999 V2000
    3.1080    0.6530   -8.5260 C   0  0  0  0  0  0  0  0  0  0  0  0
    4.5970    0.6740   -8.1320 C   0  0  0  0  0  0  0  0  0  0  0  0
    2.8150   -0.3490   -8.7610 H   0  0  0  0  0  0  0  0  0  0  0  0
    2.5170    1.0150   -7.7110 H   0  0  0  0  0  0  0  0  0  0  0  0
    2.9560    1.2780   -9.3810 H   0  0  0  0  0  0  0  0  0  0  0  0
    4.7480    0.0490   -7.2770 H   0  0  0  0  0  0  0  0  0  0  0  0
    5.1870    0.3120   -8.9470 H   0  0  0  0  0  0  0  0  0  0  0  0
    4.8900    1.6760   -7.8970 H   0  0  0  0  0  0  0  0  0  0  0  0
  1  2  1  0
  1  3  1  0
  1  4  1  0
  1  5  1  0
  2  6  1  0
  2  7  1  0
  2  8  1  0
M  END
